[General]
network = jamloc.Jamnet


cmdenv-express-mode = true
record-eventlog = false
sim-time-limit = 5000s

#bitmap-path = "../../bitmaps"
# tkenv-default-run = 1
#breakpoints-enabled = true
tkenv-default-config = 

# cmdenv-runs-to-execute = 1
cmdenv-event-banners = true
cmdenv-module-messages = true

##############################################################################
#       Parameters for the entire simulation                                 #
##############################################################################

**.playgroundSizeX = 1000m
**.playgroundSizeY = 1000m
**.playgroundSizeZ = 50m
**.numHosts = 25
**.numJammer = 1

# uncomment to enable debug messages for all modules
# **.debug = 0
**.coreDebug = false
**.debug = true


##########################################################
#			WorldUtility parameters                      #
##########################################################
**.world.useTorus = false

##############################################################################
#       Parameters for the ConnectionManager                                 #
##############################################################################
**.connectionManager.carrierFrequency = 2.4e+9Hz  # [Hz]

# max transmission power [mW]
**.connectionManager.pMax = 120.11mW  # [mW]
# signal attenuation threshold [dBm]
**.connectionManager.sat = -113.5dBm  # [dBm]
# path loss coefficient alpha
**.connectionManager.alpha = 4
**.connectionManager.sendDirect = false


##############################################################################
#       Parameters for the Mobility Module                                   #
##############################################################################

# debug switch

# if set to 0 the MN does not move
**.mobility.speed = 0mps
**.mobility.updateInterval = 0.5s
**.mobility.initFromDisplayString = false

**.host[0].mobility.initialX = 200m
**.host[0].mobility.initialY = 200m


**.host[1].mobility.initialX = 20m
**.host[1].mobility.initialY = 280m



**.MeshHost[0].mobility.initialX = 170m
**.MeshHost[0].mobility.initialY = 90m

**.MeshHost[1].mobility.initialX = 100m
**.MeshHost[1].mobility.initialY = 60m

 
**.MeshHost[2].mobility.initialX = 20m
**.MeshHost[2].mobility.initialY = 180m

 
**.MeshHost[3].mobility.initialX = 140m
**.MeshHost[3].mobility.initialY = 170m

 
**.MeshHost[4].mobility.initialX = 20m
**.MeshHost[4].mobility.initialY = 215m



**.MeshHost[5].mobility.initialX = 20m
**.MeshHost[5].mobility.initialY = 215m

**.MeshHost[6].mobility.initialX = 20m
**.MeshHost[6].mobility.initialY = 215m

**.MeshHost[7].mobility.initialX = 20m
**.MeshHost[7].mobility.initialY = 215m

**.MeshHost[8].mobility.initialX = 20m
**.MeshHost[8].mobility.initialY = 215m



**.mobility.initialZ = 0m

##############################################################################
#       Parameters for the Host                                              #
##############################################################################

##############################################################################
#       Parameters for the Application Layer                                 #
##############################################################################

# debug switch
**.appl.headerLength = 1024bit
**.appl.burstSize = 1

##############################################################################
#       Parameters for the Network Layer                                     #
##############################################################################
**.netwJammer.headerLength = 32bit# in bits
**.netwJammer.stats = false

**.netwJammer.ProactiveJammer = true
**.ReactiveJammer = false

**.netwl.headerLength = 32bit# in bits
**.netwl.stats = false
##############################################################################
#       Parameters for ARP
##############################################################################

##############################################################################
#       Parameters for the Mac Layer                                         #
##############################################################################

# debug switch
**.mac.headerLength = 272 bit
**.mac.queueLength = 14
**.mac.bitrate = 2E+6bps# in bits/second
**.mac.autoBitrate = false

### values if no fading is modelled, gives at most 1% packet error rate
**.mac.snr2Mbit = 1.46dB  # [dB]
**.mac.snr5Mbit = 2.6dB  # [dB]
**.mac.snr11Mbit = 5.68dB  # [dB]

**.mac.rtsCtsThreshold = 400
**.mac.neighborhoodCacheSize = 30
**.mac.neighborhoodCacheMaxAge = 100s  # [s]
**.mac.ProtocolRunTime = 10s   ###Mostafa Added

**.mac.txPower = 120.11mW # [mW]

##############################################################################
#       Parameters for the Phy                                               #
##############################################################################

**.phy.usePropagationDelay = false
**.phy.thermalNoise = -113dBm  # [dBm]
**.phy.analogueModels = xmldoc("config.xml")
**.phy.decider = xmldoc("config.xml")
**.phy.sensitivity = -113dBm  # [dBm]
**.phy.maxTXPower = 120.11mW
**.phy.initialRadioState = 0

**.phy.useThermalNoise = true

 